!RKS BP86 UGBS ZORA RIJCOSX NMR CPCM(Water)

%maxcore
7680

%pal
nprocs 4
end

%scf
SCFMode Direct
Convergence Tight
MaxIter 100
end

%output
PrintLevel Large
end

%rel
method ZORA
ModelPot 1,1,1,1
PictureChange 0
ModelDens rhoZORA
FiniteNuc false
end

%basis
NewGTO Cl
S   7
1     77142.8171643825           0.0004700
2     28051.9335143209           0.0005710
3     10200.7030961167           0.0030690
4      3709.34658040607          0.0092090
5      1348.85330196584          0.0318220
6       490.492109805761         0.0993160
7       178.360767202095         0.2665970
S   1
1        64.8584608007618        1.0000000
S   1
1        23.5848948366407        1.0000000
S   1
1         8.57632539514206       1.0000000
S   1
1         3.11866378005166       1.0000000
S   1
1         1.13405955638242       1.0000000
S   1
1         0.41238529322997       1.0000000
S   1
1         0.14995828844726       1.0000000
S   1
1         0.05453028670810       1.0000000
P   5
1       694.985360568515         0.0014110
2       231.661786856172         0.0065270
3        77.2205956187239        0.0374730
4        25.7401985395746        0.1543530
5         8.58006617985821       0.3654370
P   1
1         2.86002205995274       1.0000000
P   1
1         0.95334068665091       1.0000000
P   1
1         0.31778022888364       1.0000000
P   1
1         0.10592674296121       1.0000000
P   1
1         0.03530891432040       1.0000000
D   1
1         0.55696000000000       1.0000000
D   1
1         0.15619100000000       1.0000000
end
NewGTO Pt
S   9
1   2164481.60896527             0.0040140
2   1082240.80448263             0.0044120
3    541120.402241316            0.0077740
4    270560.201120658            0.0103660
5    135280.100560329            0.0240300
6     67640.0502801646           0.0383710
7     33820.0251400823           0.0763730
8     16910.0125700411           0.1307780
9      8455.00628502057          0.2188910
S   1
1      4227.50314251028          1.0000000
S   1
1      2113.75157125514          1.0000000
S   1
1      1056.87578562757          1.0000000
S   1
1       528.437892813786         1.0000000
S   1
1       264.218946406893         1.0000000
S   1
1       132.109473203446         1.0000000
S   1
1        66.0547366017232        1.0000000
S   1
1        33.0273683008616        1.0000000
S   1
1        16.5136841504308        1.0000000
S   1
1         8.25684207521540       1.0000000
S   1
1         4.12842103760770       1.0000000
S   1
1         2.06421051880385       1.0000000
S   1
1         1.03210525940192       1.0000000
S   1
1         0.51605262970096       1.0000000
S   1
1         0.25802631485048       1.0000000
S   1
1         0.12901315742524       1.0000000
S   1
1         0.06450657871262       1.0000000
P   7
1     32357.9152575654           0.0022200
2     14381.2956700291           0.0016770
3      6391.68696445736          0.0103390
4      2840.74976198105          0.0253190
5      1262.55544976936          0.0781230
6       561.135755453047         0.1867060
7       249.393669090243         0.3091980
P   1
1       110.841630706775         1.0000000
P   1
1        49.2629469807888        1.0000000
P   1
1        21.8946431025728        1.0000000
P   1
1         9.73095249003235       1.0000000
P   1
1         4.32486777334771       1.0000000
P   1
1         1.92216345482120       1.0000000
P   1
1         0.85429486880942       1.0000000
P   1
1         0.37968660835974       1.0000000
P   1
1         0.16874960371544       1.0000000
P   1
1         0.07499982387353       1.0000000
P   1
1         0.03333325505490       1.0000000
D   5
1      1911.90035078584          0.0037280
2       764.760140314335         0.0165310
3       305.904056125734         0.0851420
4       122.361622450294         0.2985150
5        48.9446489801175        0.5091720
D   1
1        19.5778595920470        1.0000000
D   1
1         7.83114383681879       1.0000000
D   1
1         3.13245753472752       1.0000000
D   1
1         1.25298301389101       1.0000000
D   1
1         0.50119320555640       1.0000000
D   1
1         0.20047728222256       1.0000000
D   1
1         0.08019091288902       1.0000000
D   1
1         0.03207636515561       1.0000000
F   4
1        82.2896809794193        0.0456910
2        29.9235203561525        0.1843250
3        10.8812801295100        0.3709410
4         3.95682913800363       0.2995400
F   1
1         1.43884695927405       1.0000000
F   1
1         0.52321707609965       1.0000000
G   1
1         2.67000000000000       1.0000000
G   1
1         0.90960000000000       1.0000000
end
AuxJ "AutoAux"
end

*xyz -2 1
Pt      -0.0000720000      0.0000060000     -0.0000370000                 
Cl      -1.7655020000     -0.4206320000     -1.4879440000                 
Cl      -0.7281800000     -1.7670050000      1.3594400000                 
Cl       1.3676630000     -1.4840700000     -1.1966480000                 
Cl       1.7653270000      0.4207270000      1.4879090000                 
Cl       0.7285350000      1.7668420000     -1.3594270000                 
Cl      -1.3675150000      1.4841100000      1.1968390000                                                                                                                                                                                                                                                                                                                                                                                                                                                                                                                                                                                                                                                                                                                                                                                                                                                                                                                                                                                                                                                                                                                                                                                                                                                                                                                                                                                                                                                                                                                                                                                                                                                                                                                                                                                                                                                                                                                                                                                                                                                                                                                                                                                                                               
*

%eprnmr
Ori = GIAO
Nuclei = all Pt { shift, ist = 195 }
giao_1el = giao_1el_analytic
giao_2el = giao_2el_rijcosx
end

